MPI startup(): Warning: I_MPI_PMI_LIBRARY will be ignored since the hydra process manager was found
 &NAMIO
 NTASK_MULTIO    =           0,
 NTASK_XIOS      =           0
 /
MPL_INIT : MPL_COMM=1140850688 (non-default) , MPL_NUMPROC=14
MPL_INIT : MPL_METHOD=JP_BLOCKING_BUFFERED , MPL_MBX_SIZE=0
MPL_INIT : MPL_NCPU_PER_NODE = 1 (CAUTION: could not be inferred from hostname!)
MPL_BUFFER_METHOD:  1     1000000
(I) LOGGER RE-CONFIGURED BY IFS_INIT
